
---------- Begin Simulation Statistics ----------
sim_seconds                                  6.000678                       # Number of seconds simulated
sim_ticks                                6000678255000                       # Number of ticks simulated
final_tick                               6000678255000                       # Number of ticks from beginning of simulation (restored from checkpoints and never reset)
sim_freq                                 1000000000000                       # Frequency of simulated ticks
host_inst_rate                                 579169                       # Simulator instruction rate (inst/s)
host_op_rate                                   927727                       # Simulator op (including micro ops) rate (op/s)
host_tick_rate                             3730259250                       # Simulator tick rate (ticks/s)
host_mem_usage                                 674352                       # Number of bytes of host memory used
host_seconds                                  1608.65                       # Real time elapsed on the host
sim_insts                                   931679894                       # Number of instructions simulated
sim_ops                                    1492387760                       # Number of ops (including micro ops) simulated
system.voltage_domain.voltage                       1                       # Voltage in Volts
system.clk_domain.clock                          1000                       # Clock period in ticks
system.mem_ctrls.pwrStateResidencyTicks::UNDEFINED 6000678255000                       # Cumulative time (in ticks) in various power states
system.mem_ctrls.bytes_read::cpu.inst           22208                       # Number of bytes read from this memory
system.mem_ctrls.bytes_read::cpu.data         1092736                       # Number of bytes read from this memory
system.mem_ctrls.bytes_read::total            1114944                       # Number of bytes read from this memory
system.mem_ctrls.bytes_inst_read::cpu.inst        22208                       # Number of instructions bytes read from this memory
system.mem_ctrls.bytes_inst_read::total         22208                       # Number of instructions bytes read from this memory
system.mem_ctrls.bytes_written::writebacks    889960832                       # Number of bytes written to this memory
system.mem_ctrls.bytes_written::total       889960832                       # Number of bytes written to this memory
system.mem_ctrls.num_reads::cpu.inst              347                       # Number of read requests responded to by this memory
system.mem_ctrls.num_reads::cpu.data            17074                       # Number of read requests responded to by this memory
system.mem_ctrls.num_reads::total               17421                       # Number of read requests responded to by this memory
system.mem_ctrls.num_writes::writebacks      13905638                       # Number of write requests responded to by this memory
system.mem_ctrls.num_writes::total           13905638                       # Number of write requests responded to by this memory
system.mem_ctrls.bw_read::cpu.inst               3701                       # Total read bandwidth from this memory (bytes/s)
system.mem_ctrls.bw_read::cpu.data             182102                       # Total read bandwidth from this memory (bytes/s)
system.mem_ctrls.bw_read::total                185803                       # Total read bandwidth from this memory (bytes/s)
system.mem_ctrls.bw_inst_read::cpu.inst          3701                       # Instruction read bandwidth from this memory (bytes/s)
system.mem_ctrls.bw_inst_read::total             3701                       # Instruction read bandwidth from this memory (bytes/s)
system.mem_ctrls.bw_write::writebacks       148310040                       # Write bandwidth from this memory (bytes/s)
system.mem_ctrls.bw_write::total            148310040                       # Write bandwidth from this memory (bytes/s)
system.mem_ctrls.bw_total::writebacks       148310040                       # Total bandwidth to/from this memory (bytes/s)
system.mem_ctrls.bw_total::cpu.inst              3701                       # Total bandwidth to/from this memory (bytes/s)
system.mem_ctrls.bw_total::cpu.data            182102                       # Total bandwidth to/from this memory (bytes/s)
system.mem_ctrls.bw_total::total            148495843                       # Total bandwidth to/from this memory (bytes/s)
system.pwrStateResidencyTicks::UNDEFINED 6000678255000                       # Cumulative time (in ticks) in various power states
system.cpu_voltage_domain.voltage                   1                       # Voltage in Volts
system.cpu_clk_domain.clock                       500                       # Clock period in ticks
system.cpu.dtb.walker.pwrStateResidencyTicks::UNDEFINED 6000678255000                       # Cumulative time (in ticks) in various power states
system.cpu.dtb.rdAccesses                   382684104                       # TLB accesses on read requests
system.cpu.dtb.wrAccesses                    56342478                       # TLB accesses on write requests
system.cpu.dtb.rdMisses                       7936011                       # TLB misses on read requests
system.cpu.dtb.wrMisses                           272                       # TLB misses on write requests
system.cpu.apic_clk_domain.clock                 8000                       # Clock period in ticks
system.cpu.interrupts.pwrStateResidencyTicks::UNDEFINED 6000678255000                       # Cumulative time (in ticks) in various power states
system.cpu.itb.walker.pwrStateResidencyTicks::UNDEFINED 6000678255000                       # Cumulative time (in ticks) in various power states
system.cpu.itb.rdAccesses                           0                       # TLB accesses on read requests
system.cpu.itb.wrAccesses                  1449455617                       # TLB accesses on write requests
system.cpu.itb.rdMisses                             0                       # TLB misses on read requests
system.cpu.itb.wrMisses                            37                       # TLB misses on write requests
system.cpu.workload.numSyscalls                     9                       # Number of system calls
system.cpu.pwrStateResidencyTicks::ON    6000678255000                       # Cumulative time (in ticks) in various power states
system.cpu.numCycles                      12001356510                       # number of cpu cycles simulated
system.cpu.numWorkItemsStarted                      0                       # number of work items this cpu started
system.cpu.numWorkItemsCompleted                    0                       # number of work items this cpu completed
system.cpu.committedInsts                   931679894                       # Number of instructions committed
system.cpu.committedOps                    1492387760                       # Number of ops (including micro ops) committed
system.cpu.num_int_alu_accesses            1491881046                       # Number of integer alu accesses
system.cpu.num_fp_alu_accesses                   1943                       # Number of float alu accesses
system.cpu.num_vec_alu_accesses                     0                       # Number of vector alu accesses
system.cpu.num_func_calls                     1080242                       # number of times a function call or return occured
system.cpu.num_conditional_control_insts     29571458                       # number of instructions that are conditional controls
system.cpu.num_int_insts                   1491881046                       # number of integer instructions
system.cpu.num_fp_insts                          1943                       # number of float instructions
system.cpu.num_vec_insts                            0                       # number of vector instructions
system.cpu.num_int_register_reads          2934935000                       # number of times the integer registers were read
system.cpu.num_int_register_writes         1545692936                       # number of times the integer registers were written
system.cpu.num_fp_register_reads                 3767                       # number of times the floating registers were read
system.cpu.num_fp_register_writes                1480                       # number of times the floating registers were written
system.cpu.num_vec_register_reads                   0                       # number of times the vector registers were read
system.cpu.num_vec_register_writes                  0                       # number of times the vector registers were written
system.cpu.num_cc_register_reads            159199317                       # number of times the CC registers were read
system.cpu.num_cc_register_writes           523310522                       # number of times the CC registers were written
system.cpu.num_mem_refs                     439026579                       # number of memory refs
system.cpu.num_load_insts                   382684101                       # Number of load instructions
system.cpu.num_store_insts                   56342478                       # Number of store instructions
system.cpu.num_idle_cycles                          0                       # Number of idle cycles
system.cpu.num_busy_cycles                12001356510                       # Number of busy cycles
system.cpu.not_idle_fraction                        1                       # Percentage of non-idle cycles
system.cpu.idle_fraction                            0                       # Percentage of idle cycles
system.cpu.Branches                          30742410                       # Number of branches fetched
system.cpu.op_class::No_OpClass                505293      0.03%      0.03% # Class of executed instruction
system.cpu.op_class::IntAlu                 915024142     61.31%     61.35% # Class of executed instruction
system.cpu.op_class::IntMult                135270004      9.06%     70.41% # Class of executed instruction
system.cpu.op_class::IntDiv                   2560782      0.17%     70.58% # Class of executed instruction
system.cpu.op_class::FloatAdd                      10      0.00%     70.58% # Class of executed instruction
system.cpu.op_class::FloatCmp                       0      0.00%     70.58% # Class of executed instruction
system.cpu.op_class::FloatCvt                       0      0.00%     70.58% # Class of executed instruction
system.cpu.op_class::FloatMult                      0      0.00%     70.58% # Class of executed instruction
system.cpu.op_class::FloatMultAcc                   0      0.00%     70.58% # Class of executed instruction
system.cpu.op_class::FloatDiv                       0      0.00%     70.58% # Class of executed instruction
system.cpu.op_class::FloatMisc                      0      0.00%     70.58% # Class of executed instruction
system.cpu.op_class::FloatSqrt                      0      0.00%     70.58% # Class of executed instruction
system.cpu.op_class::SimdAdd                      374      0.00%     70.58% # Class of executed instruction
system.cpu.op_class::SimdAddAcc                     0      0.00%     70.58% # Class of executed instruction
system.cpu.op_class::SimdAlu                       68      0.00%     70.58% # Class of executed instruction
system.cpu.op_class::SimdCmp                        0      0.00%     70.58% # Class of executed instruction
system.cpu.op_class::SimdCvt                      108      0.00%     70.58% # Class of executed instruction
system.cpu.op_class::SimdMisc                     214      0.00%     70.58% # Class of executed instruction
system.cpu.op_class::SimdMult                       0      0.00%     70.58% # Class of executed instruction
system.cpu.op_class::SimdMultAcc                    0      0.00%     70.58% # Class of executed instruction
system.cpu.op_class::SimdShift                    186      0.00%     70.58% # Class of executed instruction
system.cpu.op_class::SimdShiftAcc                   0      0.00%     70.58% # Class of executed instruction
system.cpu.op_class::SimdSqrt                       0      0.00%     70.58% # Class of executed instruction
system.cpu.op_class::SimdFloatAdd                   0      0.00%     70.58% # Class of executed instruction
system.cpu.op_class::SimdFloatAlu                   0      0.00%     70.58% # Class of executed instruction
system.cpu.op_class::SimdFloatCmp                   0      0.00%     70.58% # Class of executed instruction
system.cpu.op_class::SimdFloatCvt                   0      0.00%     70.58% # Class of executed instruction
system.cpu.op_class::SimdFloatDiv                   0      0.00%     70.58% # Class of executed instruction
system.cpu.op_class::SimdFloatMisc                  0      0.00%     70.58% # Class of executed instruction
system.cpu.op_class::SimdFloatMult                  0      0.00%     70.58% # Class of executed instruction
system.cpu.op_class::SimdFloatMultAcc               0      0.00%     70.58% # Class of executed instruction
system.cpu.op_class::SimdFloatSqrt                  0      0.00%     70.58% # Class of executed instruction
system.cpu.op_class::MemRead                382684045     25.64%     96.22% # Class of executed instruction
system.cpu.op_class::MemWrite                56342063      3.78%    100.00% # Class of executed instruction
system.cpu.op_class::FloatMemRead                  56      0.00%    100.00% # Class of executed instruction
system.cpu.op_class::FloatMemWrite                415      0.00%    100.00% # Class of executed instruction
system.cpu.op_class::IprAccess                      0      0.00%    100.00% # Class of executed instruction
system.cpu.op_class::InstPrefetch                   0      0.00%    100.00% # Class of executed instruction
system.cpu.op_class::total                 1492387760                       # Class of executed instruction
system.cpu.dcache.tags.pwrStateResidencyTicks::UNDEFINED 6000678255000                       # Cumulative time (in ticks) in various power states
system.cpu.dcache.tags.tagsinuse           511.851727                       # Cycle average of tags in use
system.cpu.dcache.tags.total_refs           439026582                       # Total number of references to valid blocks.
system.cpu.dcache.tags.sampled_refs           3127050                       # Sample count of references to valid blocks.
system.cpu.dcache.tags.avg_refs            140.396406                       # Average number of references to valid blocks.
system.cpu.dcache.tags.warmup_cycle            759000                       # Cycle when the warmup percentage was hit.
system.cpu.dcache.tags.occ_blocks::cpu.data   511.851727                       # Average occupied blocks per requestor
system.cpu.dcache.tags.occ_percent::cpu.data     0.999710                       # Average percentage of cache occupancy
system.cpu.dcache.tags.occ_percent::total     0.999710                       # Average percentage of cache occupancy
system.cpu.dcache.tags.occ_task_id_blocks::1024          512                       # Occupied blocks per task id
system.cpu.dcache.tags.age_task_id_blocks_1024::0           11                       # Occupied blocks per task id
system.cpu.dcache.tags.age_task_id_blocks_1024::1           25                       # Occupied blocks per task id
system.cpu.dcache.tags.age_task_id_blocks_1024::2          291                       # Occupied blocks per task id
system.cpu.dcache.tags.age_task_id_blocks_1024::3          184                       # Occupied blocks per task id
system.cpu.dcache.tags.age_task_id_blocks_1024::4            1                       # Occupied blocks per task id
system.cpu.dcache.tags.occ_task_id_percent::1024            1                       # Percentage of cache occupancy per task id
system.cpu.dcache.tags.tag_accesses         881180214                       # Number of tag accesses
system.cpu.dcache.tags.data_accesses        881180214                       # Number of data accesses
system.cpu.dcache.pwrStateResidencyTicks::UNDEFINED 6000678255000                       # Cumulative time (in ticks) in various power states
system.cpu.dcache.ReadReq_hits::cpu.data    379577422                       # number of ReadReq hits
system.cpu.dcache.ReadReq_hits::total       379577422                       # number of ReadReq hits
system.cpu.dcache.WriteReq_hits::cpu.data       714918                       # number of WriteReq hits
system.cpu.dcache.WriteReq_hits::total         714918                       # number of WriteReq hits
system.cpu.dcache.demand_hits::cpu.data     380292340                       # number of demand (read+write) hits
system.cpu.dcache.demand_hits::total        380292340                       # number of demand (read+write) hits
system.cpu.dcache.overall_hits::cpu.data    380292340                       # number of overall hits
system.cpu.dcache.overall_hits::total       380292340                       # number of overall hits
system.cpu.dcache.ReadReq_misses::cpu.data      3106682                       # number of ReadReq misses
system.cpu.dcache.ReadReq_misses::total       3106682                       # number of ReadReq misses
system.cpu.dcache.WriteReq_misses::cpu.data     55627560                       # number of WriteReq misses
system.cpu.dcache.WriteReq_misses::total     55627560                       # number of WriteReq misses
system.cpu.dcache.demand_misses::cpu.data     58734242                       # number of demand (read+write) misses
system.cpu.dcache.demand_misses::total       58734242                       # number of demand (read+write) misses
system.cpu.dcache.overall_misses::cpu.data     58734242                       # number of overall misses
system.cpu.dcache.overall_misses::total      58734242                       # number of overall misses
system.cpu.dcache.ReadReq_miss_latency::cpu.data  75973414500                       # number of ReadReq miss cycles
system.cpu.dcache.ReadReq_miss_latency::total  75973414500                       # number of ReadReq miss cycles
system.cpu.dcache.WriteReq_miss_latency::cpu.data 4094866174500                       # number of WriteReq miss cycles
system.cpu.dcache.WriteReq_miss_latency::total 4094866174500                       # number of WriteReq miss cycles
system.cpu.dcache.demand_miss_latency::cpu.data 4170839589000                       # number of demand (read+write) miss cycles
system.cpu.dcache.demand_miss_latency::total 4170839589000                       # number of demand (read+write) miss cycles
system.cpu.dcache.overall_miss_latency::cpu.data 4170839589000                       # number of overall miss cycles
system.cpu.dcache.overall_miss_latency::total 4170839589000                       # number of overall miss cycles
system.cpu.dcache.ReadReq_accesses::cpu.data    382684104                       # number of ReadReq accesses(hits+misses)
system.cpu.dcache.ReadReq_accesses::total    382684104                       # number of ReadReq accesses(hits+misses)
system.cpu.dcache.WriteReq_accesses::cpu.data     56342478                       # number of WriteReq accesses(hits+misses)
system.cpu.dcache.WriteReq_accesses::total     56342478                       # number of WriteReq accesses(hits+misses)
system.cpu.dcache.demand_accesses::cpu.data    439026582                       # number of demand (read+write) accesses
system.cpu.dcache.demand_accesses::total    439026582                       # number of demand (read+write) accesses
system.cpu.dcache.overall_accesses::cpu.data    439026582                       # number of overall (read+write) accesses
system.cpu.dcache.overall_accesses::total    439026582                       # number of overall (read+write) accesses
system.cpu.dcache.ReadReq_miss_rate::cpu.data     0.008118                       # miss rate for ReadReq accesses
system.cpu.dcache.ReadReq_miss_rate::total     0.008118                       # miss rate for ReadReq accesses
system.cpu.dcache.WriteReq_miss_rate::cpu.data     0.987311                       # miss rate for WriteReq accesses
system.cpu.dcache.WriteReq_miss_rate::total     0.987311                       # miss rate for WriteReq accesses
system.cpu.dcache.demand_miss_rate::cpu.data     0.133783                       # miss rate for demand accesses
system.cpu.dcache.demand_miss_rate::total     0.133783                       # miss rate for demand accesses
system.cpu.dcache.overall_miss_rate::cpu.data     0.133783                       # miss rate for overall accesses
system.cpu.dcache.overall_miss_rate::total     0.133783                       # miss rate for overall accesses
system.cpu.dcache.ReadReq_avg_miss_latency::cpu.data 24454.841049                       # average ReadReq miss latency
system.cpu.dcache.ReadReq_avg_miss_latency::total 24454.841049                       # average ReadReq miss latency
system.cpu.dcache.WriteReq_avg_miss_latency::cpu.data 73612.183862                       # average WriteReq miss latency
system.cpu.dcache.WriteReq_avg_miss_latency::total 73612.183862                       # average WriteReq miss latency
system.cpu.dcache.demand_avg_miss_latency::cpu.data 71012.061227                       # average overall miss latency
system.cpu.dcache.demand_avg_miss_latency::total 71012.061227                       # average overall miss latency
system.cpu.dcache.overall_avg_miss_latency::cpu.data 71012.061227                       # average overall miss latency
system.cpu.dcache.overall_avg_miss_latency::total 71012.061227                       # average overall miss latency
system.cpu.dcache.blocked_cycles::no_mshrs            0                       # number of cycles access was blocked
system.cpu.dcache.blocked_cycles::no_targets            0                       # number of cycles access was blocked
system.cpu.dcache.blocked::no_mshrs                 0                       # number of cycles access was blocked
system.cpu.dcache.blocked::no_targets               0                       # number of cycles access was blocked
system.cpu.dcache.avg_blocked_cycles::no_mshrs          nan                       # average number of cycles each access was blocked
system.cpu.dcache.avg_blocked_cycles::no_targets          nan                       # average number of cycles each access was blocked
system.cpu.dcache.writebacks::writebacks         5652                       # number of writebacks
system.cpu.dcache.writebacks::total              5652                       # number of writebacks
system.cpu.dcache.ReadReq_mshr_misses::cpu.data      3106682                       # number of ReadReq MSHR misses
system.cpu.dcache.ReadReq_mshr_misses::total      3106682                       # number of ReadReq MSHR misses
system.cpu.dcache.WriteReq_mshr_misses::cpu.data     55627560                       # number of WriteReq MSHR misses
system.cpu.dcache.WriteReq_mshr_misses::total     55627560                       # number of WriteReq MSHR misses
system.cpu.dcache.demand_mshr_misses::cpu.data     58734242                       # number of demand (read+write) MSHR misses
system.cpu.dcache.demand_mshr_misses::total     58734242                       # number of demand (read+write) MSHR misses
system.cpu.dcache.overall_mshr_misses::cpu.data     58734242                       # number of overall MSHR misses
system.cpu.dcache.overall_mshr_misses::total     58734242                       # number of overall MSHR misses
system.cpu.dcache.ReadReq_mshr_miss_latency::cpu.data  72866732500                       # number of ReadReq MSHR miss cycles
system.cpu.dcache.ReadReq_mshr_miss_latency::total  72866732500                       # number of ReadReq MSHR miss cycles
system.cpu.dcache.WriteReq_mshr_miss_latency::cpu.data 4039238614500                       # number of WriteReq MSHR miss cycles
system.cpu.dcache.WriteReq_mshr_miss_latency::total 4039238614500                       # number of WriteReq MSHR miss cycles
system.cpu.dcache.demand_mshr_miss_latency::cpu.data 4112105347000                       # number of demand (read+write) MSHR miss cycles
system.cpu.dcache.demand_mshr_miss_latency::total 4112105347000                       # number of demand (read+write) MSHR miss cycles
system.cpu.dcache.overall_mshr_miss_latency::cpu.data 4112105347000                       # number of overall MSHR miss cycles
system.cpu.dcache.overall_mshr_miss_latency::total 4112105347000                       # number of overall MSHR miss cycles
system.cpu.dcache.ReadReq_mshr_miss_rate::cpu.data     0.008118                       # mshr miss rate for ReadReq accesses
system.cpu.dcache.ReadReq_mshr_miss_rate::total     0.008118                       # mshr miss rate for ReadReq accesses
system.cpu.dcache.WriteReq_mshr_miss_rate::cpu.data     0.987311                       # mshr miss rate for WriteReq accesses
system.cpu.dcache.WriteReq_mshr_miss_rate::total     0.987311                       # mshr miss rate for WriteReq accesses
system.cpu.dcache.demand_mshr_miss_rate::cpu.data     0.133783                       # mshr miss rate for demand accesses
system.cpu.dcache.demand_mshr_miss_rate::total     0.133783                       # mshr miss rate for demand accesses
system.cpu.dcache.overall_mshr_miss_rate::cpu.data     0.133783                       # mshr miss rate for overall accesses
system.cpu.dcache.overall_mshr_miss_rate::total     0.133783                       # mshr miss rate for overall accesses
system.cpu.dcache.ReadReq_avg_mshr_miss_latency::cpu.data 23454.841049                       # average ReadReq mshr miss latency
system.cpu.dcache.ReadReq_avg_mshr_miss_latency::total 23454.841049                       # average ReadReq mshr miss latency
system.cpu.dcache.WriteReq_avg_mshr_miss_latency::cpu.data 72612.183862                       # average WriteReq mshr miss latency
system.cpu.dcache.WriteReq_avg_mshr_miss_latency::total 72612.183862                       # average WriteReq mshr miss latency
system.cpu.dcache.demand_avg_mshr_miss_latency::cpu.data 70012.061227                       # average overall mshr miss latency
system.cpu.dcache.demand_avg_mshr_miss_latency::total 70012.061227                       # average overall mshr miss latency
system.cpu.dcache.overall_avg_mshr_miss_latency::cpu.data 70012.061227                       # average overall mshr miss latency
system.cpu.dcache.overall_avg_mshr_miss_latency::total 70012.061227                       # average overall mshr miss latency
system.cpu.dcache.replacements                3126538                       # number of replacements
system.cpu.dtb_walker_cache.tags.pwrStateResidencyTicks::UNDEFINED 6000678255000                       # Cumulative time (in ticks) in various power states
system.cpu.dtb_walker_cache.tags.tagsinuse            0                       # Cycle average of tags in use
system.cpu.dtb_walker_cache.tags.total_refs            0                       # Total number of references to valid blocks.
system.cpu.dtb_walker_cache.tags.sampled_refs            0                       # Sample count of references to valid blocks.
system.cpu.dtb_walker_cache.tags.avg_refs          nan                       # Average number of references to valid blocks.
system.cpu.dtb_walker_cache.tags.warmup_cycle            0                       # Cycle when the warmup percentage was hit.
system.cpu.dtb_walker_cache.tags.tag_accesses            0                       # Number of tag accesses
system.cpu.dtb_walker_cache.tags.data_accesses            0                       # Number of data accesses
system.cpu.dtb_walker_cache.pwrStateResidencyTicks::UNDEFINED 6000678255000                       # Cumulative time (in ticks) in various power states
system.cpu.dtb_walker_cache.blocked_cycles::no_mshrs            0                       # number of cycles access was blocked
system.cpu.dtb_walker_cache.blocked_cycles::no_targets            0                       # number of cycles access was blocked
system.cpu.dtb_walker_cache.blocked::no_mshrs            0                       # number of cycles access was blocked
system.cpu.dtb_walker_cache.blocked::no_targets            0                       # number of cycles access was blocked
system.cpu.dtb_walker_cache.avg_blocked_cycles::no_mshrs          nan                       # average number of cycles each access was blocked
system.cpu.dtb_walker_cache.avg_blocked_cycles::no_targets          nan                       # average number of cycles each access was blocked
system.cpu.dtb_walker_cache.replacements            0                       # number of replacements
system.cpu.icache.tags.pwrStateResidencyTicks::UNDEFINED 6000678255000                       # Cumulative time (in ticks) in various power states
system.cpu.icache.tags.tagsinuse           279.919811                       # Cycle average of tags in use
system.cpu.icache.tags.total_refs          1449455617                       # Total number of references to valid blocks.
system.cpu.icache.tags.sampled_refs               347                       # Sample count of references to valid blocks.
system.cpu.icache.tags.avg_refs          4177105.524496                       # Average number of references to valid blocks.
system.cpu.icache.tags.warmup_cycle            439000                       # Cycle when the warmup percentage was hit.
system.cpu.icache.tags.occ_blocks::cpu.inst   279.919811                       # Average occupied blocks per requestor
system.cpu.icache.tags.occ_percent::cpu.inst     0.546718                       # Average percentage of cache occupancy
system.cpu.icache.tags.occ_percent::total     0.546718                       # Average percentage of cache occupancy
system.cpu.icache.tags.occ_task_id_blocks::1024          309                       # Occupied blocks per task id
system.cpu.icache.tags.age_task_id_blocks_1024::0           15                       # Occupied blocks per task id
system.cpu.icache.tags.age_task_id_blocks_1024::1           24                       # Occupied blocks per task id
system.cpu.icache.tags.age_task_id_blocks_1024::4          270                       # Occupied blocks per task id
system.cpu.icache.tags.occ_task_id_percent::1024     0.603516                       # Percentage of cache occupancy per task id
system.cpu.icache.tags.tag_accesses        2898911581                       # Number of tag accesses
system.cpu.icache.tags.data_accesses       2898911581                       # Number of data accesses
system.cpu.icache.pwrStateResidencyTicks::UNDEFINED 6000678255000                       # Cumulative time (in ticks) in various power states
system.cpu.icache.ReadReq_hits::cpu.inst   1449455270                       # number of ReadReq hits
system.cpu.icache.ReadReq_hits::total      1449455270                       # number of ReadReq hits
system.cpu.icache.demand_hits::cpu.inst    1449455270                       # number of demand (read+write) hits
system.cpu.icache.demand_hits::total       1449455270                       # number of demand (read+write) hits
system.cpu.icache.overall_hits::cpu.inst   1449455270                       # number of overall hits
system.cpu.icache.overall_hits::total      1449455270                       # number of overall hits
system.cpu.icache.ReadReq_misses::cpu.inst          347                       # number of ReadReq misses
system.cpu.icache.ReadReq_misses::total           347                       # number of ReadReq misses
system.cpu.icache.demand_misses::cpu.inst          347                       # number of demand (read+write) misses
system.cpu.icache.demand_misses::total            347                       # number of demand (read+write) misses
system.cpu.icache.overall_misses::cpu.inst          347                       # number of overall misses
system.cpu.icache.overall_misses::total           347                       # number of overall misses
system.cpu.icache.ReadReq_miss_latency::cpu.inst     91060000                       # number of ReadReq miss cycles
system.cpu.icache.ReadReq_miss_latency::total     91060000                       # number of ReadReq miss cycles
system.cpu.icache.demand_miss_latency::cpu.inst     91060000                       # number of demand (read+write) miss cycles
system.cpu.icache.demand_miss_latency::total     91060000                       # number of demand (read+write) miss cycles
system.cpu.icache.overall_miss_latency::cpu.inst     91060000                       # number of overall miss cycles
system.cpu.icache.overall_miss_latency::total     91060000                       # number of overall miss cycles
system.cpu.icache.ReadReq_accesses::cpu.inst   1449455617                       # number of ReadReq accesses(hits+misses)
system.cpu.icache.ReadReq_accesses::total   1449455617                       # number of ReadReq accesses(hits+misses)
system.cpu.icache.demand_accesses::cpu.inst   1449455617                       # number of demand (read+write) accesses
system.cpu.icache.demand_accesses::total   1449455617                       # number of demand (read+write) accesses
system.cpu.icache.overall_accesses::cpu.inst   1449455617                       # number of overall (read+write) accesses
system.cpu.icache.overall_accesses::total   1449455617                       # number of overall (read+write) accesses
system.cpu.icache.ReadReq_miss_rate::cpu.inst     0.000000                       # miss rate for ReadReq accesses
system.cpu.icache.ReadReq_miss_rate::total     0.000000                       # miss rate for ReadReq accesses
system.cpu.icache.demand_miss_rate::cpu.inst     0.000000                       # miss rate for demand accesses
system.cpu.icache.demand_miss_rate::total     0.000000                       # miss rate for demand accesses
system.cpu.icache.overall_miss_rate::cpu.inst     0.000000                       # miss rate for overall accesses
system.cpu.icache.overall_miss_rate::total     0.000000                       # miss rate for overall accesses
system.cpu.icache.ReadReq_avg_miss_latency::cpu.inst 262420.749280                       # average ReadReq miss latency
system.cpu.icache.ReadReq_avg_miss_latency::total 262420.749280                       # average ReadReq miss latency
system.cpu.icache.demand_avg_miss_latency::cpu.inst 262420.749280                       # average overall miss latency
system.cpu.icache.demand_avg_miss_latency::total 262420.749280                       # average overall miss latency
system.cpu.icache.overall_avg_miss_latency::cpu.inst 262420.749280                       # average overall miss latency
system.cpu.icache.overall_avg_miss_latency::total 262420.749280                       # average overall miss latency
system.cpu.icache.blocked_cycles::no_mshrs            0                       # number of cycles access was blocked
system.cpu.icache.blocked_cycles::no_targets            0                       # number of cycles access was blocked
system.cpu.icache.blocked::no_mshrs                 0                       # number of cycles access was blocked
system.cpu.icache.blocked::no_targets               0                       # number of cycles access was blocked
system.cpu.icache.avg_blocked_cycles::no_mshrs          nan                       # average number of cycles each access was blocked
system.cpu.icache.avg_blocked_cycles::no_targets          nan                       # average number of cycles each access was blocked
system.cpu.icache.writebacks::writebacks           38                       # number of writebacks
system.cpu.icache.writebacks::total                38                       # number of writebacks
system.cpu.icache.ReadReq_mshr_misses::cpu.inst          347                       # number of ReadReq MSHR misses
system.cpu.icache.ReadReq_mshr_misses::total          347                       # number of ReadReq MSHR misses
system.cpu.icache.demand_mshr_misses::cpu.inst          347                       # number of demand (read+write) MSHR misses
system.cpu.icache.demand_mshr_misses::total          347                       # number of demand (read+write) MSHR misses
system.cpu.icache.overall_mshr_misses::cpu.inst          347                       # number of overall MSHR misses
system.cpu.icache.overall_mshr_misses::total          347                       # number of overall MSHR misses
system.cpu.icache.ReadReq_mshr_miss_latency::cpu.inst     90713000                       # number of ReadReq MSHR miss cycles
system.cpu.icache.ReadReq_mshr_miss_latency::total     90713000                       # number of ReadReq MSHR miss cycles
system.cpu.icache.demand_mshr_miss_latency::cpu.inst     90713000                       # number of demand (read+write) MSHR miss cycles
system.cpu.icache.demand_mshr_miss_latency::total     90713000                       # number of demand (read+write) MSHR miss cycles
system.cpu.icache.overall_mshr_miss_latency::cpu.inst     90713000                       # number of overall MSHR miss cycles
system.cpu.icache.overall_mshr_miss_latency::total     90713000                       # number of overall MSHR miss cycles
system.cpu.icache.ReadReq_mshr_miss_rate::cpu.inst     0.000000                       # mshr miss rate for ReadReq accesses
system.cpu.icache.ReadReq_mshr_miss_rate::total     0.000000                       # mshr miss rate for ReadReq accesses
system.cpu.icache.demand_mshr_miss_rate::cpu.inst     0.000000                       # mshr miss rate for demand accesses
system.cpu.icache.demand_mshr_miss_rate::total     0.000000                       # mshr miss rate for demand accesses
system.cpu.icache.overall_mshr_miss_rate::cpu.inst     0.000000                       # mshr miss rate for overall accesses
system.cpu.icache.overall_mshr_miss_rate::total     0.000000                       # mshr miss rate for overall accesses
system.cpu.icache.ReadReq_avg_mshr_miss_latency::cpu.inst 261420.749280                       # average ReadReq mshr miss latency
system.cpu.icache.ReadReq_avg_mshr_miss_latency::total 261420.749280                       # average ReadReq mshr miss latency
system.cpu.icache.demand_avg_mshr_miss_latency::cpu.inst 261420.749280                       # average overall mshr miss latency
system.cpu.icache.demand_avg_mshr_miss_latency::total 261420.749280                       # average overall mshr miss latency
system.cpu.icache.overall_avg_mshr_miss_latency::cpu.inst 261420.749280                       # average overall mshr miss latency
system.cpu.icache.overall_avg_mshr_miss_latency::total 261420.749280                       # average overall mshr miss latency
system.cpu.icache.replacements                     38                       # number of replacements
system.cpu.itb_walker_cache.tags.pwrStateResidencyTicks::UNDEFINED 6000678255000                       # Cumulative time (in ticks) in various power states
system.cpu.itb_walker_cache.tags.tagsinuse            0                       # Cycle average of tags in use
system.cpu.itb_walker_cache.tags.total_refs            0                       # Total number of references to valid blocks.
system.cpu.itb_walker_cache.tags.sampled_refs            0                       # Sample count of references to valid blocks.
system.cpu.itb_walker_cache.tags.avg_refs          nan                       # Average number of references to valid blocks.
system.cpu.itb_walker_cache.tags.warmup_cycle            0                       # Cycle when the warmup percentage was hit.
system.cpu.itb_walker_cache.tags.tag_accesses            0                       # Number of tag accesses
system.cpu.itb_walker_cache.tags.data_accesses            0                       # Number of data accesses
system.cpu.itb_walker_cache.pwrStateResidencyTicks::UNDEFINED 6000678255000                       # Cumulative time (in ticks) in various power states
system.cpu.itb_walker_cache.blocked_cycles::no_mshrs            0                       # number of cycles access was blocked
system.cpu.itb_walker_cache.blocked_cycles::no_targets            0                       # number of cycles access was blocked
system.cpu.itb_walker_cache.blocked::no_mshrs            0                       # number of cycles access was blocked
system.cpu.itb_walker_cache.blocked::no_targets            0                       # number of cycles access was blocked
system.cpu.itb_walker_cache.avg_blocked_cycles::no_mshrs          nan                       # average number of cycles each access was blocked
system.cpu.itb_walker_cache.avg_blocked_cycles::no_targets          nan                       # average number of cycles each access was blocked
system.cpu.itb_walker_cache.replacements            0                       # number of replacements
system.l2.tags.pwrStateResidencyTicks::UNDEFINED 6000678255000                       # Cumulative time (in ticks) in various power states
system.l2.tags.tagsinuse                  2045.870087                       # Cycle average of tags in use
system.l2.tags.total_refs                   117483152                       # Total number of references to valid blocks.
system.l2.tags.sampled_refs                   1710552                       # Sample count of references to valid blocks.
system.l2.tags.avg_refs                     68.681427                       # Average number of references to valid blocks.
system.l2.tags.warmup_cycle                    428500                       # Cycle when the warmup percentage was hit.
system.l2.tags.occ_blocks::writebacks        0.000013                       # Average occupied blocks per requestor
system.l2.tags.occ_blocks::cpu.inst          0.799871                       # Average occupied blocks per requestor
system.l2.tags.occ_blocks::cpu.data       2045.070202                       # Average occupied blocks per requestor
system.l2.tags.occ_percent::writebacks       0.000000                       # Average percentage of cache occupancy
system.l2.tags.occ_percent::cpu.inst         0.000391                       # Average percentage of cache occupancy
system.l2.tags.occ_percent::cpu.data         0.998569                       # Average percentage of cache occupancy
system.l2.tags.occ_percent::total            0.998960                       # Average percentage of cache occupancy
system.l2.tags.occ_task_id_blocks::1024          2048                       # Occupied blocks per task id
system.l2.tags.age_task_id_blocks_1024::0           31                       # Occupied blocks per task id
system.l2.tags.age_task_id_blocks_1024::1           43                       # Occupied blocks per task id
system.l2.tags.age_task_id_blocks_1024::2          301                       # Occupied blocks per task id
system.l2.tags.age_task_id_blocks_1024::3         1653                       # Occupied blocks per task id
system.l2.tags.age_task_id_blocks_1024::4           20                       # Occupied blocks per task id
system.l2.tags.occ_task_id_percent::1024            1                       # Percentage of cache occupancy per task id
system.l2.tags.tag_accesses                 941575784                       # Number of tag accesses
system.l2.tags.data_accesses                941575784                       # Number of data accesses
system.l2.pwrStateResidencyTicks::UNDEFINED 6000678255000                       # Cumulative time (in ticks) in various power states
system.l2.WritebackDirty_hits::writebacks         5652                       # number of WritebackDirty hits
system.l2.WritebackDirty_hits::total             5652                       # number of WritebackDirty hits
system.l2.WritebackClean_hits::writebacks           38                       # number of WritebackClean hits
system.l2.WritebackClean_hits::total               38                       # number of WritebackClean hits
system.l2.WriteClean_hits::writebacks        55621989                       # number of WriteClean hits
system.l2.WriteClean_hits::total             55621989                       # number of WriteClean hits
system.l2.UpgradeReq_hits::cpu.data          27809276                       # number of UpgradeReq hits
system.l2.UpgradeReq_hits::total             27809276                       # number of UpgradeReq hits
system.l2.ReadExReq_hits::cpu.data               1684                       # number of ReadExReq hits
system.l2.ReadExReq_hits::total                  1684                       # number of ReadExReq hits
system.l2.ReadSharedReq_hits::cpu.data        1413479                       # number of ReadSharedReq hits
system.l2.ReadSharedReq_hits::total           1413479                       # number of ReadSharedReq hits
system.l2.demand_hits::cpu.data               1415163                       # number of demand (read+write) hits
system.l2.demand_hits::total                  1415163                       # number of demand (read+write) hits
system.l2.overall_hits::cpu.data              1415163                       # number of overall hits
system.l2.overall_hits::total                 1415163                       # number of overall hits
system.l2.UpgradeReq_misses::cpu.data        27797916                       # number of UpgradeReq misses
system.l2.UpgradeReq_misses::total           27797916                       # number of UpgradeReq misses
system.l2.ReadExReq_misses::cpu.data            18684                       # number of ReadExReq misses
system.l2.ReadExReq_misses::total               18684                       # number of ReadExReq misses
system.l2.ReadCleanReq_misses::cpu.inst           347                       # number of ReadCleanReq misses
system.l2.ReadCleanReq_misses::total              347                       # number of ReadCleanReq misses
system.l2.ReadSharedReq_misses::cpu.data      1693203                       # number of ReadSharedReq misses
system.l2.ReadSharedReq_misses::total         1693203                       # number of ReadSharedReq misses
system.l2.demand_misses::cpu.inst                 347                       # number of demand (read+write) misses
system.l2.demand_misses::cpu.data             1711887                       # number of demand (read+write) misses
system.l2.demand_misses::total                1712234                       # number of demand (read+write) misses
system.l2.overall_misses::cpu.inst                347                       # number of overall misses
system.l2.overall_misses::cpu.data            1711887                       # number of overall misses
system.l2.overall_misses::total               1712234                       # number of overall misses
system.l2.UpgradeReq_miss_latency::cpu.data 3653477510500                       # number of UpgradeReq miss cycles
system.l2.UpgradeReq_miss_latency::total 3653477510500                       # number of UpgradeReq miss cycles
system.l2.ReadExReq_miss_latency::cpu.data  10124657000                       # number of ReadExReq miss cycles
system.l2.ReadExReq_miss_latency::total   10124657000                       # number of ReadExReq miss cycles
system.l2.ReadCleanReq_miss_latency::cpu.inst     90181500                       # number of ReadCleanReq miss cycles
system.l2.ReadCleanReq_miss_latency::total     90181500                       # number of ReadCleanReq miss cycles
system.l2.ReadSharedReq_miss_latency::cpu.data  53365179500                       # number of ReadSharedReq miss cycles
system.l2.ReadSharedReq_miss_latency::total  53365179500                       # number of ReadSharedReq miss cycles
system.l2.demand_miss_latency::cpu.inst      90181500                       # number of demand (read+write) miss cycles
system.l2.demand_miss_latency::cpu.data   63489836500                       # number of demand (read+write) miss cycles
system.l2.demand_miss_latency::total      63580018000                       # number of demand (read+write) miss cycles
system.l2.overall_miss_latency::cpu.inst     90181500                       # number of overall miss cycles
system.l2.overall_miss_latency::cpu.data  63489836500                       # number of overall miss cycles
system.l2.overall_miss_latency::total     63580018000                       # number of overall miss cycles
system.l2.WritebackDirty_accesses::writebacks         5652                       # number of WritebackDirty accesses(hits+misses)
system.l2.WritebackDirty_accesses::total         5652                       # number of WritebackDirty accesses(hits+misses)
system.l2.WritebackClean_accesses::writebacks           38                       # number of WritebackClean accesses(hits+misses)
system.l2.WritebackClean_accesses::total           38                       # number of WritebackClean accesses(hits+misses)
system.l2.WriteClean_accesses::writebacks     55621989                       # number of WriteClean accesses(hits+misses)
system.l2.WriteClean_accesses::total         55621989                       # number of WriteClean accesses(hits+misses)
system.l2.UpgradeReq_accesses::cpu.data      55607192                       # number of UpgradeReq accesses(hits+misses)
system.l2.UpgradeReq_accesses::total         55607192                       # number of UpgradeReq accesses(hits+misses)
system.l2.ReadExReq_accesses::cpu.data          20368                       # number of ReadExReq accesses(hits+misses)
system.l2.ReadExReq_accesses::total             20368                       # number of ReadExReq accesses(hits+misses)
system.l2.ReadCleanReq_accesses::cpu.inst          347                       # number of ReadCleanReq accesses(hits+misses)
system.l2.ReadCleanReq_accesses::total            347                       # number of ReadCleanReq accesses(hits+misses)
system.l2.ReadSharedReq_accesses::cpu.data      3106682                       # number of ReadSharedReq accesses(hits+misses)
system.l2.ReadSharedReq_accesses::total       3106682                       # number of ReadSharedReq accesses(hits+misses)
system.l2.demand_accesses::cpu.inst               347                       # number of demand (read+write) accesses
system.l2.demand_accesses::cpu.data           3127050                       # number of demand (read+write) accesses
system.l2.demand_accesses::total              3127397                       # number of demand (read+write) accesses
system.l2.overall_accesses::cpu.inst              347                       # number of overall (read+write) accesses
system.l2.overall_accesses::cpu.data          3127050                       # number of overall (read+write) accesses
system.l2.overall_accesses::total             3127397                       # number of overall (read+write) accesses
system.l2.UpgradeReq_miss_rate::cpu.data     0.499898                       # miss rate for UpgradeReq accesses
system.l2.UpgradeReq_miss_rate::total        0.499898                       # miss rate for UpgradeReq accesses
system.l2.ReadExReq_miss_rate::cpu.data      0.917321                       # miss rate for ReadExReq accesses
system.l2.ReadExReq_miss_rate::total         0.917321                       # miss rate for ReadExReq accesses
system.l2.ReadCleanReq_miss_rate::cpu.inst            1                       # miss rate for ReadCleanReq accesses
system.l2.ReadCleanReq_miss_rate::total             1                       # miss rate for ReadCleanReq accesses
system.l2.ReadSharedReq_miss_rate::cpu.data     0.545020                       # miss rate for ReadSharedReq accesses
system.l2.ReadSharedReq_miss_rate::total     0.545020                       # miss rate for ReadSharedReq accesses
system.l2.demand_miss_rate::cpu.inst                1                       # miss rate for demand accesses
system.l2.demand_miss_rate::cpu.data         0.547445                       # miss rate for demand accesses
system.l2.demand_miss_rate::total            0.547495                       # miss rate for demand accesses
system.l2.overall_miss_rate::cpu.inst               1                       # miss rate for overall accesses
system.l2.overall_miss_rate::cpu.data        0.547445                       # miss rate for overall accesses
system.l2.overall_miss_rate::total           0.547495                       # miss rate for overall accesses
system.l2.UpgradeReq_avg_miss_latency::cpu.data 131429.906850                       # average UpgradeReq miss latency
system.l2.UpgradeReq_avg_miss_latency::total 131429.906850                       # average UpgradeReq miss latency
system.l2.ReadExReq_avg_miss_latency::cpu.data 541889.156498                       # average ReadExReq miss latency
system.l2.ReadExReq_avg_miss_latency::total 541889.156498                       # average ReadExReq miss latency
system.l2.ReadCleanReq_avg_miss_latency::cpu.inst 259889.048991                       # average ReadCleanReq miss latency
system.l2.ReadCleanReq_avg_miss_latency::total 259889.048991                       # average ReadCleanReq miss latency
system.l2.ReadSharedReq_avg_miss_latency::cpu.data 31517.295623                       # average ReadSharedReq miss latency
system.l2.ReadSharedReq_avg_miss_latency::total 31517.295623                       # average ReadSharedReq miss latency
system.l2.demand_avg_miss_latency::cpu.inst 259889.048991                       # average overall miss latency
system.l2.demand_avg_miss_latency::cpu.data 37087.632829                       # average overall miss latency
system.l2.demand_avg_miss_latency::total 37132.785589                       # average overall miss latency
system.l2.overall_avg_miss_latency::cpu.inst 259889.048991                       # average overall miss latency
system.l2.overall_avg_miss_latency::cpu.data 37087.632829                       # average overall miss latency
system.l2.overall_avg_miss_latency::total 37132.785589                       # average overall miss latency
system.l2.blocked_cycles::no_mshrs                  0                       # number of cycles access was blocked
system.l2.blocked_cycles::no_targets                0                       # number of cycles access was blocked
system.l2.blocked::no_mshrs                         0                       # number of cycles access was blocked
system.l2.blocked::no_targets                       0                       # number of cycles access was blocked
system.l2.avg_blocked_cycles::no_mshrs            nan                       # average number of cycles each access was blocked
system.l2.avg_blocked_cycles::no_targets          nan                       # average number of cycles each access was blocked
system.l2.writebacks::writebacks                17059                       # number of writebacks
system.l2.writebacks::total                     17059                       # number of writebacks
system.l2.CleanEvict_mshr_misses::writebacks            2                       # number of CleanEvict MSHR misses
system.l2.CleanEvict_mshr_misses::total             2                       # number of CleanEvict MSHR misses
system.l2.UpgradeReq_mshr_misses::cpu.data     27797916                       # number of UpgradeReq MSHR misses
system.l2.UpgradeReq_mshr_misses::total      27797916                       # number of UpgradeReq MSHR misses
system.l2.ReadExReq_mshr_misses::cpu.data        18684                       # number of ReadExReq MSHR misses
system.l2.ReadExReq_mshr_misses::total          18684                       # number of ReadExReq MSHR misses
system.l2.ReadCleanReq_mshr_misses::cpu.inst          347                       # number of ReadCleanReq MSHR misses
system.l2.ReadCleanReq_mshr_misses::total          347                       # number of ReadCleanReq MSHR misses
system.l2.ReadSharedReq_mshr_misses::cpu.data      1693203                       # number of ReadSharedReq MSHR misses
system.l2.ReadSharedReq_mshr_misses::total      1693203                       # number of ReadSharedReq MSHR misses
system.l2.demand_mshr_misses::cpu.inst            347                       # number of demand (read+write) MSHR misses
system.l2.demand_mshr_misses::cpu.data        1711887                       # number of demand (read+write) MSHR misses
system.l2.demand_mshr_misses::total           1712234                       # number of demand (read+write) MSHR misses
system.l2.overall_mshr_misses::cpu.inst           347                       # number of overall MSHR misses
system.l2.overall_mshr_misses::cpu.data       1711887                       # number of overall MSHR misses
system.l2.overall_mshr_misses::total          1712234                       # number of overall MSHR misses
system.l2.UpgradeReq_mshr_miss_latency::cpu.data 3375498350500                       # number of UpgradeReq MSHR miss cycles
system.l2.UpgradeReq_mshr_miss_latency::total 3375498350500                       # number of UpgradeReq MSHR miss cycles
system.l2.ReadExReq_mshr_miss_latency::cpu.data   9937817000                       # number of ReadExReq MSHR miss cycles
system.l2.ReadExReq_mshr_miss_latency::total   9937817000                       # number of ReadExReq MSHR miss cycles
system.l2.ReadCleanReq_mshr_miss_latency::cpu.inst     86711500                       # number of ReadCleanReq MSHR miss cycles
system.l2.ReadCleanReq_mshr_miss_latency::total     86711500                       # number of ReadCleanReq MSHR miss cycles
system.l2.ReadSharedReq_mshr_miss_latency::cpu.data  36433149500                       # number of ReadSharedReq MSHR miss cycles
system.l2.ReadSharedReq_mshr_miss_latency::total  36433149500                       # number of ReadSharedReq MSHR miss cycles
system.l2.demand_mshr_miss_latency::cpu.inst     86711500                       # number of demand (read+write) MSHR miss cycles
system.l2.demand_mshr_miss_latency::cpu.data  46370966500                       # number of demand (read+write) MSHR miss cycles
system.l2.demand_mshr_miss_latency::total  46457678000                       # number of demand (read+write) MSHR miss cycles
system.l2.overall_mshr_miss_latency::cpu.inst     86711500                       # number of overall MSHR miss cycles
system.l2.overall_mshr_miss_latency::cpu.data  46370966500                       # number of overall MSHR miss cycles
system.l2.overall_mshr_miss_latency::total  46457678000                       # number of overall MSHR miss cycles
system.l2.CleanEvict_mshr_miss_rate::writebacks          inf                       # mshr miss rate for CleanEvict accesses
system.l2.CleanEvict_mshr_miss_rate::total          inf                       # mshr miss rate for CleanEvict accesses
system.l2.UpgradeReq_mshr_miss_rate::cpu.data     0.499898                       # mshr miss rate for UpgradeReq accesses
system.l2.UpgradeReq_mshr_miss_rate::total     0.499898                       # mshr miss rate for UpgradeReq accesses
system.l2.ReadExReq_mshr_miss_rate::cpu.data     0.917321                       # mshr miss rate for ReadExReq accesses
system.l2.ReadExReq_mshr_miss_rate::total     0.917321                       # mshr miss rate for ReadExReq accesses
system.l2.ReadCleanReq_mshr_miss_rate::cpu.inst            1                       # mshr miss rate for ReadCleanReq accesses
system.l2.ReadCleanReq_mshr_miss_rate::total            1                       # mshr miss rate for ReadCleanReq accesses
system.l2.ReadSharedReq_mshr_miss_rate::cpu.data     0.545020                       # mshr miss rate for ReadSharedReq accesses
system.l2.ReadSharedReq_mshr_miss_rate::total     0.545020                       # mshr miss rate for ReadSharedReq accesses
system.l2.demand_mshr_miss_rate::cpu.inst            1                       # mshr miss rate for demand accesses
system.l2.demand_mshr_miss_rate::cpu.data     0.547445                       # mshr miss rate for demand accesses
system.l2.demand_mshr_miss_rate::total       0.547495                       # mshr miss rate for demand accesses
system.l2.overall_mshr_miss_rate::cpu.inst            1                       # mshr miss rate for overall accesses
system.l2.overall_mshr_miss_rate::cpu.data     0.547445                       # mshr miss rate for overall accesses
system.l2.overall_mshr_miss_rate::total      0.547495                       # mshr miss rate for overall accesses
system.l2.UpgradeReq_avg_mshr_miss_latency::cpu.data 121429.906850                       # average UpgradeReq mshr miss latency
system.l2.UpgradeReq_avg_mshr_miss_latency::total 121429.906850                       # average UpgradeReq mshr miss latency
system.l2.ReadExReq_avg_mshr_miss_latency::cpu.data 531889.156498                       # average ReadExReq mshr miss latency
system.l2.ReadExReq_avg_mshr_miss_latency::total 531889.156498                       # average ReadExReq mshr miss latency
system.l2.ReadCleanReq_avg_mshr_miss_latency::cpu.inst 249889.048991                       # average ReadCleanReq mshr miss latency
system.l2.ReadCleanReq_avg_mshr_miss_latency::total 249889.048991                       # average ReadCleanReq mshr miss latency
system.l2.ReadSharedReq_avg_mshr_miss_latency::cpu.data 21517.295623                       # average ReadSharedReq mshr miss latency
system.l2.ReadSharedReq_avg_mshr_miss_latency::total 21517.295623                       # average ReadSharedReq mshr miss latency
system.l2.demand_avg_mshr_miss_latency::cpu.inst 249889.048991                       # average overall mshr miss latency
system.l2.demand_avg_mshr_miss_latency::cpu.data 27087.632829                       # average overall mshr miss latency
system.l2.demand_avg_mshr_miss_latency::total 27132.785589                       # average overall mshr miss latency
system.l2.overall_avg_mshr_miss_latency::cpu.inst 249889.048991                       # average overall mshr miss latency
system.l2.overall_avg_mshr_miss_latency::cpu.data 27087.632829                       # average overall mshr miss latency
system.l2.overall_avg_mshr_miss_latency::total 27132.785589                       # average overall mshr miss latency
system.l2.replacements                        1708504                       # number of replacements
system.l3.tags.pwrStateResidencyTicks::UNDEFINED 6000678255000                       # Cumulative time (in ticks) in various power states
system.l3.tags.tagsinuse                 14417.678646                       # Cycle average of tags in use
system.l3.tags.total_refs                    59029339                       # Total number of references to valid blocks.
system.l3.tags.sampled_refs                     17421                       # Sample count of references to valid blocks.
system.l3.tags.avg_refs                   3388.401297                       # Average number of references to valid blocks.
system.l3.tags.warmup_cycle                    418000                       # Cycle when the warmup percentage was hit.
system.l3.tags.occ_blocks::cpu.inst        307.919265                       # Average occupied blocks per requestor
system.l3.tags.occ_blocks::cpu.data      14109.759381                       # Average occupied blocks per requestor
system.l3.tags.occ_percent::cpu.inst         0.004698                       # Average percentage of cache occupancy
system.l3.tags.occ_percent::cpu.data         0.215298                       # Average percentage of cache occupancy
system.l3.tags.occ_percent::total            0.219996                       # Average percentage of cache occupancy
system.l3.tags.occ_task_id_blocks::1024         17278                       # Occupied blocks per task id
system.l3.tags.age_task_id_blocks_1024::0           26                       # Occupied blocks per task id
system.l3.tags.age_task_id_blocks_1024::1           27                       # Occupied blocks per task id
system.l3.tags.age_task_id_blocks_1024::3            2                       # Occupied blocks per task id
system.l3.tags.age_task_id_blocks_1024::4        17223                       # Occupied blocks per task id
system.l3.tags.occ_task_id_percent::1024     0.263641                       # Percentage of cache occupancy per task id
system.l3.tags.tag_accesses                 236134777                       # Number of tag accesses
system.l3.tags.data_accesses                236134777                       # Number of data accesses
system.l3.pwrStateResidencyTicks::UNDEFINED 6000678255000                       # Cumulative time (in ticks) in various power states
system.l3.WritebackDirty_hits::writebacks        17059                       # number of WritebackDirty hits
system.l3.WritebackDirty_hits::total            17059                       # number of WritebackDirty hits
system.l3.WriteClean_hits::writebacks        27810963                       # number of WriteClean hits
system.l3.WriteClean_hits::total             27810963                       # number of WriteClean hits
system.l3.UpgradeReq_hits::cpu.data          13905470                       # number of UpgradeReq hits
system.l3.UpgradeReq_hits::total             13905470                       # number of UpgradeReq hits
system.l3.ReadExReq_hits::cpu.data                 15                       # number of ReadExReq hits
system.l3.ReadExReq_hits::total                    15                       # number of ReadExReq hits
system.l3.ReadSharedReq_hits::cpu.data        1693104                       # number of ReadSharedReq hits
system.l3.ReadSharedReq_hits::total           1693104                       # number of ReadSharedReq hits
system.l3.demand_hits::cpu.data               1693119                       # number of demand (read+write) hits
system.l3.demand_hits::total                  1693119                       # number of demand (read+write) hits
system.l3.overall_hits::cpu.data              1693119                       # number of overall hits
system.l3.overall_hits::total                 1693119                       # number of overall hits
system.l3.UpgradeReq_misses::cpu.data        13894138                       # number of UpgradeReq misses
system.l3.UpgradeReq_misses::total           13894138                       # number of UpgradeReq misses
system.l3.ReadExReq_misses::cpu.data            16977                       # number of ReadExReq misses
system.l3.ReadExReq_misses::total               16977                       # number of ReadExReq misses
system.l3.ReadSharedReq_misses::cpu.inst          347                       # number of ReadSharedReq misses
system.l3.ReadSharedReq_misses::cpu.data           99                       # number of ReadSharedReq misses
system.l3.ReadSharedReq_misses::total             446                       # number of ReadSharedReq misses
system.l3.demand_misses::cpu.inst                 347                       # number of demand (read+write) misses
system.l3.demand_misses::cpu.data               17076                       # number of demand (read+write) misses
system.l3.demand_misses::total                  17423                       # number of demand (read+write) misses
system.l3.overall_misses::cpu.inst                347                       # number of overall misses
system.l3.overall_misses::cpu.data              17076                       # number of overall misses
system.l3.overall_misses::total                 17423                       # number of overall misses
system.l3.UpgradeReq_miss_latency::cpu.data 2923900138478                       # number of UpgradeReq miss cycles
system.l3.UpgradeReq_miss_latency::total 2923900138478                       # number of UpgradeReq miss cycles
system.l3.ReadExReq_miss_latency::cpu.data   9517906500                       # number of ReadExReq miss cycles
system.l3.ReadExReq_miss_latency::total    9517906500                       # number of ReadExReq miss cycles
system.l3.ReadSharedReq_miss_latency::cpu.inst     82894500                       # number of ReadSharedReq miss cycles
system.l3.ReadSharedReq_miss_latency::cpu.data     30324500                       # number of ReadSharedReq miss cycles
system.l3.ReadSharedReq_miss_latency::total    113219000                       # number of ReadSharedReq miss cycles
system.l3.demand_miss_latency::cpu.inst      82894500                       # number of demand (read+write) miss cycles
system.l3.demand_miss_latency::cpu.data    9548231000                       # number of demand (read+write) miss cycles
system.l3.demand_miss_latency::total       9631125500                       # number of demand (read+write) miss cycles
system.l3.overall_miss_latency::cpu.inst     82894500                       # number of overall miss cycles
system.l3.overall_miss_latency::cpu.data   9548231000                       # number of overall miss cycles
system.l3.overall_miss_latency::total      9631125500                       # number of overall miss cycles
system.l3.WritebackDirty_accesses::writebacks        17059                       # number of WritebackDirty accesses(hits+misses)
system.l3.WritebackDirty_accesses::total        17059                       # number of WritebackDirty accesses(hits+misses)
system.l3.WriteClean_accesses::writebacks     27810963                       # number of WriteClean accesses(hits+misses)
system.l3.WriteClean_accesses::total         27810963                       # number of WriteClean accesses(hits+misses)
system.l3.UpgradeReq_accesses::cpu.data      27799608                       # number of UpgradeReq accesses(hits+misses)
system.l3.UpgradeReq_accesses::total         27799608                       # number of UpgradeReq accesses(hits+misses)
system.l3.ReadExReq_accesses::cpu.data          16992                       # number of ReadExReq accesses(hits+misses)
system.l3.ReadExReq_accesses::total             16992                       # number of ReadExReq accesses(hits+misses)
system.l3.ReadSharedReq_accesses::cpu.inst          347                       # number of ReadSharedReq accesses(hits+misses)
system.l3.ReadSharedReq_accesses::cpu.data      1693203                       # number of ReadSharedReq accesses(hits+misses)
system.l3.ReadSharedReq_accesses::total       1693550                       # number of ReadSharedReq accesses(hits+misses)
system.l3.demand_accesses::cpu.inst               347                       # number of demand (read+write) accesses
system.l3.demand_accesses::cpu.data           1710195                       # number of demand (read+write) accesses
system.l3.demand_accesses::total              1710542                       # number of demand (read+write) accesses
system.l3.overall_accesses::cpu.inst              347                       # number of overall (read+write) accesses
system.l3.overall_accesses::cpu.data          1710195                       # number of overall (read+write) accesses
system.l3.overall_accesses::total             1710542                       # number of overall (read+write) accesses
system.l3.UpgradeReq_miss_rate::cpu.data     0.499796                       # miss rate for UpgradeReq accesses
system.l3.UpgradeReq_miss_rate::total        0.499796                       # miss rate for UpgradeReq accesses
system.l3.ReadExReq_miss_rate::cpu.data      0.999117                       # miss rate for ReadExReq accesses
system.l3.ReadExReq_miss_rate::total         0.999117                       # miss rate for ReadExReq accesses
system.l3.ReadSharedReq_miss_rate::cpu.inst            1                       # miss rate for ReadSharedReq accesses
system.l3.ReadSharedReq_miss_rate::cpu.data     0.000058                       # miss rate for ReadSharedReq accesses
system.l3.ReadSharedReq_miss_rate::total     0.000263                       # miss rate for ReadSharedReq accesses
system.l3.demand_miss_rate::cpu.inst                1                       # miss rate for demand accesses
system.l3.demand_miss_rate::cpu.data         0.009985                       # miss rate for demand accesses
system.l3.demand_miss_rate::total            0.010186                       # miss rate for demand accesses
system.l3.overall_miss_rate::cpu.inst               1                       # miss rate for overall accesses
system.l3.overall_miss_rate::cpu.data        0.009985                       # miss rate for overall accesses
system.l3.overall_miss_rate::total           0.010186                       # miss rate for overall accesses
system.l3.UpgradeReq_avg_miss_latency::cpu.data 210441.276636                       # average UpgradeReq miss latency
system.l3.UpgradeReq_avg_miss_latency::total 210441.276636                       # average UpgradeReq miss latency
system.l3.ReadExReq_avg_miss_latency::cpu.data 560635.359604                       # average ReadExReq miss latency
system.l3.ReadExReq_avg_miss_latency::total 560635.359604                       # average ReadExReq miss latency
system.l3.ReadSharedReq_avg_miss_latency::cpu.inst 238889.048991                       # average ReadSharedReq miss latency
system.l3.ReadSharedReq_avg_miss_latency::cpu.data 306308.080808                       # average ReadSharedReq miss latency
system.l3.ReadSharedReq_avg_miss_latency::total 253854.260090                       # average ReadSharedReq miss latency
system.l3.demand_avg_miss_latency::cpu.inst 238889.048991                       # average overall miss latency
system.l3.demand_avg_miss_latency::cpu.data 559160.869056                       # average overall miss latency
system.l3.demand_avg_miss_latency::total 552782.270562                       # average overall miss latency
system.l3.overall_avg_miss_latency::cpu.inst 238889.048991                       # average overall miss latency
system.l3.overall_avg_miss_latency::cpu.data 559160.869056                       # average overall miss latency
system.l3.overall_avg_miss_latency::total 552782.270562                       # average overall miss latency
system.l3.blocked_cycles::no_mshrs                  0                       # number of cycles access was blocked
system.l3.blocked_cycles::no_targets                0                       # number of cycles access was blocked
system.l3.blocked::no_mshrs                         0                       # number of cycles access was blocked
system.l3.blocked::no_targets                       0                       # number of cycles access was blocked
system.l3.avg_blocked_cycles::no_mshrs            nan                       # average number of cycles each access was blocked
system.l3.avg_blocked_cycles::no_targets          nan                       # average number of cycles each access was blocked
system.l3.writebacks::writebacks                  143                       # number of writebacks
system.l3.writebacks::total                       143                       # number of writebacks
system.l3.UpgradeReq_mshr_misses::cpu.data     13894138                       # number of UpgradeReq MSHR misses
system.l3.UpgradeReq_mshr_misses::total      13894138                       # number of UpgradeReq MSHR misses
system.l3.ReadExReq_mshr_misses::cpu.data        16977                       # number of ReadExReq MSHR misses
system.l3.ReadExReq_mshr_misses::total          16977                       # number of ReadExReq MSHR misses
system.l3.ReadSharedReq_mshr_misses::cpu.inst          347                       # number of ReadSharedReq MSHR misses
system.l3.ReadSharedReq_mshr_misses::cpu.data           99                       # number of ReadSharedReq MSHR misses
system.l3.ReadSharedReq_mshr_misses::total          446                       # number of ReadSharedReq MSHR misses
system.l3.demand_mshr_misses::cpu.inst            347                       # number of demand (read+write) MSHR misses
system.l3.demand_mshr_misses::cpu.data          17076                       # number of demand (read+write) MSHR misses
system.l3.demand_mshr_misses::total             17423                       # number of demand (read+write) MSHR misses
system.l3.overall_mshr_misses::cpu.inst           347                       # number of overall MSHR misses
system.l3.overall_mshr_misses::cpu.data         17076                       # number of overall MSHR misses
system.l3.overall_mshr_misses::total            17423                       # number of overall MSHR misses
system.l3.UpgradeReq_mshr_miss_latency::cpu.data 2784958758478                       # number of UpgradeReq MSHR miss cycles
system.l3.UpgradeReq_mshr_miss_latency::total 2784958758478                       # number of UpgradeReq MSHR miss cycles
system.l3.ReadExReq_mshr_miss_latency::cpu.data   9348136500                       # number of ReadExReq MSHR miss cycles
system.l3.ReadExReq_mshr_miss_latency::total   9348136500                       # number of ReadExReq MSHR miss cycles
system.l3.ReadSharedReq_mshr_miss_latency::cpu.inst     79424500                       # number of ReadSharedReq MSHR miss cycles
system.l3.ReadSharedReq_mshr_miss_latency::cpu.data     29334500                       # number of ReadSharedReq MSHR miss cycles
system.l3.ReadSharedReq_mshr_miss_latency::total    108759000                       # number of ReadSharedReq MSHR miss cycles
system.l3.demand_mshr_miss_latency::cpu.inst     79424500                       # number of demand (read+write) MSHR miss cycles
system.l3.demand_mshr_miss_latency::cpu.data   9377471000                       # number of demand (read+write) MSHR miss cycles
system.l3.demand_mshr_miss_latency::total   9456895500                       # number of demand (read+write) MSHR miss cycles
system.l3.overall_mshr_miss_latency::cpu.inst     79424500                       # number of overall MSHR miss cycles
system.l3.overall_mshr_miss_latency::cpu.data   9377471000                       # number of overall MSHR miss cycles
system.l3.overall_mshr_miss_latency::total   9456895500                       # number of overall MSHR miss cycles
system.l3.UpgradeReq_mshr_miss_rate::cpu.data     0.499796                       # mshr miss rate for UpgradeReq accesses
system.l3.UpgradeReq_mshr_miss_rate::total     0.499796                       # mshr miss rate for UpgradeReq accesses
system.l3.ReadExReq_mshr_miss_rate::cpu.data     0.999117                       # mshr miss rate for ReadExReq accesses
system.l3.ReadExReq_mshr_miss_rate::total     0.999117                       # mshr miss rate for ReadExReq accesses
system.l3.ReadSharedReq_mshr_miss_rate::cpu.inst            1                       # mshr miss rate for ReadSharedReq accesses
system.l3.ReadSharedReq_mshr_miss_rate::cpu.data     0.000058                       # mshr miss rate for ReadSharedReq accesses
system.l3.ReadSharedReq_mshr_miss_rate::total     0.000263                       # mshr miss rate for ReadSharedReq accesses
system.l3.demand_mshr_miss_rate::cpu.inst            1                       # mshr miss rate for demand accesses
system.l3.demand_mshr_miss_rate::cpu.data     0.009985                       # mshr miss rate for demand accesses
system.l3.demand_mshr_miss_rate::total       0.010186                       # mshr miss rate for demand accesses
system.l3.overall_mshr_miss_rate::cpu.inst            1                       # mshr miss rate for overall accesses
system.l3.overall_mshr_miss_rate::cpu.data     0.009985                       # mshr miss rate for overall accesses
system.l3.overall_mshr_miss_rate::total      0.010186                       # mshr miss rate for overall accesses
system.l3.UpgradeReq_avg_mshr_miss_latency::cpu.data 200441.276636                       # average UpgradeReq mshr miss latency
system.l3.UpgradeReq_avg_mshr_miss_latency::total 200441.276636                       # average UpgradeReq mshr miss latency
system.l3.ReadExReq_avg_mshr_miss_latency::cpu.data 550635.359604                       # average ReadExReq mshr miss latency
system.l3.ReadExReq_avg_mshr_miss_latency::total 550635.359604                       # average ReadExReq mshr miss latency
system.l3.ReadSharedReq_avg_mshr_miss_latency::cpu.inst 228889.048991                       # average ReadSharedReq mshr miss latency
system.l3.ReadSharedReq_avg_mshr_miss_latency::cpu.data 296308.080808                       # average ReadSharedReq mshr miss latency
system.l3.ReadSharedReq_avg_mshr_miss_latency::total 243854.260090                       # average ReadSharedReq mshr miss latency
system.l3.demand_avg_mshr_miss_latency::cpu.inst 228889.048991                       # average overall mshr miss latency
system.l3.demand_avg_mshr_miss_latency::cpu.data 549160.869056                       # average overall mshr miss latency
system.l3.demand_avg_mshr_miss_latency::total 542782.270562                       # average overall mshr miss latency
system.l3.overall_avg_mshr_miss_latency::cpu.inst 228889.048991                       # average overall mshr miss latency
system.l3.overall_avg_mshr_miss_latency::cpu.data 549160.869056                       # average overall mshr miss latency
system.l3.overall_avg_mshr_miss_latency::total 542782.270562                       # average overall mshr miss latency
system.l3.replacements                            143                       # number of replacements
system.membus.snoop_filter.tot_requests      13911704                       # Total number of requests made to the snoop filter.
system.membus.snoop_filter.hit_single_requests     13894283                       # Number of requests hitting in the snoop filter with a single holder of the requested data.
system.membus.snoop_filter.hit_multi_requests            0                       # Number of requests hitting in the snoop filter with multiple (>1) holders of the requested data.
system.membus.snoop_filter.tot_snoops               0                       # Total number of snoops made to the snoop filter.
system.membus.snoop_filter.hit_single_snoops            0                       # Number of snoops hitting in the snoop filter with a single holder of the requested data.
system.membus.snoop_filter.hit_multi_snoops            0                       # Number of snoops hitting in the snoop filter with multiple (>1) holders of the requested data.
system.membus.pwrStateResidencyTicks::UNDEFINED 6000678255000                       # Cumulative time (in ticks) in various power states
system.membus.trans_dist::ReadResp                446                       # Transaction distribution
system.membus.trans_dist::WritebackDirty          143                       # Transaction distribution
system.membus.trans_dist::WriteClean         13905495                       # Transaction distribution
system.membus.trans_dist::UpgradeReq         13894140                       # Transaction distribution
system.membus.trans_dist::ReadExReq             16975                       # Transaction distribution
system.membus.trans_dist::ReadExResp            16975                       # Transaction distribution
system.membus.trans_dist::ReadSharedReq           446                       # Transaction distribution
system.membus.pkt_count_system.l3.mem_side::system.mem_ctrls.port     27834620                       # Packet count per connected master and slave (bytes)
system.membus.pkt_count_system.l3.mem_side::total     27834620                       # Packet count per connected master and slave (bytes)
system.membus.pkt_count::total               27834620                       # Packet count per connected master and slave (bytes)
system.membus.pkt_size_system.l3.mem_side::system.mem_ctrls.port    891075776                       # Cumulative packet size per connected master and slave (bytes)
system.membus.pkt_size_system.l3.mem_side::total    891075776                       # Cumulative packet size per connected master and slave (bytes)
system.membus.pkt_size::total               891075776                       # Cumulative packet size per connected master and slave (bytes)
system.membus.snoops                                0                       # Total snoops (count)
system.membus.snoopTraffic                          0                       # Total snoop traffic (bytes)
system.membus.snoop_fanout::samples          13911561                       # Request fanout histogram
system.membus.snoop_fanout::mean                    0                       # Request fanout histogram
system.membus.snoop_fanout::stdev                   0                       # Request fanout histogram
system.membus.snoop_fanout::underflows              0      0.00%      0.00% # Request fanout histogram
system.membus.snoop_fanout::0                13911561    100.00%    100.00% # Request fanout histogram
system.membus.snoop_fanout::1                       0      0.00%    100.00% # Request fanout histogram
system.membus.snoop_fanout::overflows               0      0.00%    100.00% # Request fanout histogram
system.membus.snoop_fanout::min_value               0                       # Request fanout histogram
system.membus.snoop_fanout::max_value               0                       # Request fanout histogram
system.membus.snoop_fanout::total            13911561                       # Request fanout histogram
system.membus.reqLayer2.occupancy         95348931500                       # Layer occupancy (ticks)
system.membus.reqLayer2.utilization               1.6                       # Layer utilization (%)
system.membus.respLayer1.occupancy           88591000                       # Layer occupancy (ticks)
system.membus.respLayer1.utilization              0.0                       # Layer utilization (%)
system.tol2bus.snoop_filter.tot_requests     61861165                       # Total number of requests made to the snoop filter.
system.tol2bus.snoop_filter.hit_single_requests     58733768                       # Number of requests hitting in the snoop filter with a single holder of the requested data.
system.tol2bus.snoop_filter.hit_multi_requests            0                       # Number of requests hitting in the snoop filter with multiple (>1) holders of the requested data.
system.tol2bus.snoop_filter.tot_snoops       41716740                       # Total number of snoops made to the snoop filter.
system.tol2bus.snoop_filter.hit_single_snoops     41716740                       # Number of snoops hitting in the snoop filter with a single holder of the requested data.
system.tol2bus.snoop_filter.hit_multi_snoops            0                       # Number of snoops hitting in the snoop filter with multiple (>1) holders of the requested data.
system.tol2bus.pwrStateResidencyTicks::UNDEFINED 6000678255000                       # Cumulative time (in ticks) in various power states
system.tol2bus.trans_dist::ReadResp           3107029                       # Transaction distribution
system.tol2bus.trans_dist::WritebackDirty        22711                       # Transaction distribution
system.tol2bus.trans_dist::WritebackClean           38                       # Transaction distribution
system.tol2bus.trans_dist::WriteClean        97338447                       # Transaction distribution
system.tol2bus.trans_dist::CleanEvict         4812331                       # Transaction distribution
system.tol2bus.trans_dist::UpgradeReq        55607192                       # Transaction distribution
system.tol2bus.trans_dist::UpgradeResp       55607192                       # Transaction distribution
system.tol2bus.trans_dist::ReadExReq            20368                       # Transaction distribution
system.tol2bus.trans_dist::ReadExResp           20368                       # Transaction distribution
system.tol2bus.trans_dist::ReadCleanReq           347                       # Transaction distribution
system.tol2bus.trans_dist::ReadSharedReq      3106682                       # Transaction distribution
system.tol2bus.pkt_count_system.cpu.icache.mem_side::system.l2.cpu_side          732                       # Packet count per connected master and slave (bytes)
system.tol2bus.pkt_count_system.cpu.dcache.mem_side::system.l2.cpu_side    176217011                       # Packet count per connected master and slave (bytes)
system.tol2bus.pkt_count::total             176217743                       # Packet count per connected master and slave (bytes)
system.tol2bus.pkt_size_system.cpu.icache.mem_side::system.l2.cpu_side        24640                       # Cumulative packet size per connected master and slave (bytes)
system.tol2bus.pkt_size_system.cpu.dcache.mem_side::system.l2.cpu_side   3760300224                       # Cumulative packet size per connected master and slave (bytes)
system.tol2bus.pkt_size::total             3760324864                       # Cumulative packet size per connected master and slave (bytes)
system.tol2bus.snoops                        43424962                       # Total snoops (count)
system.tol2bus.snoopTraffic                2670945088                       # Total snoop traffic (bytes)
system.tol2bus.snoop_fanout::samples        102159551                       # Request fanout histogram
system.tol2bus.snoop_fanout::mean            0.408349                       # Request fanout histogram
system.tol2bus.snoop_fanout::stdev           0.491528                       # Request fanout histogram
system.tol2bus.snoop_fanout::underflows             0      0.00%      0.00% # Request fanout histogram
system.tol2bus.snoop_fanout::0               60442811     59.17%     59.17% # Request fanout histogram
system.tol2bus.snoop_fanout::1               41716740     40.83%    100.00% # Request fanout histogram
system.tol2bus.snoop_fanout::2                      0      0.00%    100.00% # Request fanout histogram
system.tol2bus.snoop_fanout::3                      0      0.00%    100.00% # Request fanout histogram
system.tol2bus.snoop_fanout::4                      0      0.00%    100.00% # Request fanout histogram
system.tol2bus.snoop_fanout::overflows              0      0.00%    100.00% # Request fanout histogram
system.tol2bus.snoop_fanout::min_value              0                       # Request fanout histogram
system.tol2bus.snoop_fanout::max_value              1                       # Request fanout histogram
system.tol2bus.snoop_fanout::total          102159551                       # Request fanout histogram
system.tol2bus.reqLayer0.occupancy       114369256000                       # Layer occupancy (ticks)
system.tol2bus.reqLayer0.utilization              1.9                       # Layer utilization (%)
system.tol2bus.respLayer0.occupancy            520500                       # Layer occupancy (ticks)
system.tol2bus.respLayer0.utilization             0.0                       # Layer utilization (%)
system.tol2bus.respLayer1.occupancy       32494171000                       # Layer occupancy (ticks)
system.tol2bus.respLayer1.utilization             0.5                       # Layer utilization (%)
system.tol3bus.snoop_filter.tot_requests     31218386                       # Total number of requests made to the snoop filter.
system.tol3bus.snoop_filter.hit_single_requests     29507844                       # Number of requests hitting in the snoop filter with a single holder of the requested data.
system.tol3bus.snoop_filter.hit_multi_requests            0                       # Number of requests hitting in the snoop filter with multiple (>1) holders of the requested data.
system.tol3bus.snoop_filter.tot_snoops       13905495                       # Total number of snoops made to the snoop filter.
system.tol3bus.snoop_filter.hit_single_snoops     13905495                       # Number of snoops hitting in the snoop filter with a single holder of the requested data.
system.tol3bus.snoop_filter.hit_multi_snoops            0                       # Number of snoops hitting in the snoop filter with multiple (>1) holders of the requested data.
system.tol3bus.pwrStateResidencyTicks::UNDEFINED 6000678255000                       # Cumulative time (in ticks) in various power states
system.tol3bus.trans_dist::ReadResp           1693550                       # Transaction distribution
system.tol3bus.trans_dist::WritebackDirty        17202                       # Transaction distribution
system.tol3bus.trans_dist::WriteClean        41716458                       # Transaction distribution
system.tol3bus.trans_dist::CleanEvict         1691167                       # Transaction distribution
system.tol3bus.trans_dist::UpgradeReq        27799608                       # Transaction distribution
system.tol3bus.trans_dist::UpgradeResp       27799608                       # Transaction distribution
system.tol3bus.trans_dist::ReadExReq            16992                       # Transaction distribution
system.tol3bus.trans_dist::ReadExResp           16992                       # Transaction distribution
system.tol3bus.trans_dist::ReadSharedReq      1693550                       # Transaction distribution
system.tol3bus.pkt_count_system.l2.mem_side::system.l3.cpu_side     88539489                       # Packet count per connected master and slave (bytes)
system.tol3bus.pkt_size_system.l2.mem_side::system.l3.cpu_side   1890468096                       # Cumulative packet size per connected master and slave (bytes)
system.tol3bus.snoops                        13905638                       # Total snoops (count)
system.tol3bus.snoopTraffic                 889960832                       # Total snoop traffic (bytes)
system.tol3bus.snoop_fanout::samples         43415798                       # Request fanout histogram
system.tol3bus.snoop_fanout::mean            0.320287                       # Request fanout histogram
system.tol3bus.snoop_fanout::stdev           0.466587                       # Request fanout histogram
system.tol3bus.snoop_fanout::underflows             0      0.00%      0.00% # Request fanout histogram
system.tol3bus.snoop_fanout::0               29510303     67.97%     67.97% # Request fanout histogram
system.tol3bus.snoop_fanout::1               13905495     32.03%    100.00% # Request fanout histogram
system.tol3bus.snoop_fanout::overflows              0      0.00%    100.00% # Request fanout histogram
system.tol3bus.snoop_fanout::min_value              0                       # Request fanout histogram
system.tol3bus.snoop_fanout::max_value              1                       # Request fanout histogram
system.tol3bus.snoop_fanout::total           43415798                       # Request fanout histogram
system.tol3bus.reqLayer0.occupancy        57342713478                       # Layer occupancy (ticks)
system.tol3bus.reqLayer0.utilization              1.0                       # Layer utilization (%)
system.tol3bus.respLayer0.occupancy       16465617000                       # Layer occupancy (ticks)
system.tol3bus.respLayer0.utilization             0.3                       # Layer utilization (%)

---------- End Simulation Statistics   ----------
